tests/data/state_estimation/ill-conditioned-system/grid5-no-capacitance/asym_output.json
{
  "version": "1.0",
  "type": "asym_output",
  "is_batch": false,
  "attributes": {},
  "data": {
    "node": [
      {
        "id": 0,
        "energized": 1,
        "u_pu": [
          0.9717448976529293,
          0.9717448976529298,
          0.9717448976529274
        ],
        "u": [
          5610.371782435641,
          5610.371782435644,
          5610.37178243563
        ],
        "u_angle": [
          -0.03667859182485663,
          -2.131073694218052,
          2.057716510568336
        ],
        "p": [
          2541627.503834988,
          2541627.50383497,
          2541627.503835248
        ],
        "q": [
          1541627.503835049,
          1541627.503835077,
          1541627.50383517
        ]
      },
      {
        "id": 1,
        "energized": 1,
        "u_pu": [
          0.9591439187975326,
          0.959143918797533,
          0.9591439187975291
        ],
        "u": [
          5537.619997093479,
          5537.619997093482,
          5537.61999709346
        ],
        "u_angle": [
          -0.03989733227649931,
          -2.134292434669694,
          2.054497770116693
        ],
        "p": [
          -499999.999999796,
          -500000.0000000092,
          -500000.0000000336
        ],
        "q": [
          -299999.9999999094,
          -299999.9999999169,
          -300000.0000001056
        ]
      },
      {
        "id": 2,
        "energized": 1,
        "u_pu": [
          0.9566349196745317,
          0.9566349196745322,
          0.9566349196745283
        ],
        "u": [
          5523.134283902869,
          5523.134283902872,
          5523.134283902849
        ],
        "u_angle": [
          -0.04055124723789744,
          -2.134946349631092,
          2.053843855155294
        ],
        "p": [
          -500000.0000000189,
          -499999.999999903,
          -500000.0000000337
        ],
        "q": [
          -300000.0000000087,
          -300000.0000000552,
          -299999.9999999469
        ]
      },
      {
        "id": 3,
        "energized": 1,
        "u_pu": [
          0.951561259333002,
          0.9515612593330021,
          0.9515612593329975
        ],
        "u": [
          5493.84149226328,
          5493.84149226328,
          5493.841492263254
        ],
        "u_angle": [
          -0.04186953818982866,
          -2.136264640583023,
          2.052525564203363
        ],
        "p": [
          -499999.9999999431,
          -499999.9999999345,
          -499999.9999999151
        ],
        "q": [
          -300000.0000000093,
          -299999.9999999596,
          -300000.0000000612
        ]
      },
      {
        "id": 4,
        "energized": 1,
        "u_pu": [
          0.949032157127342,
          0.949032157127342,
          0.9490321571273375
        ],
        "u": [
          5479.239713870821,
          5479.239713870821,
          5479.239713870795
        ],
        "u_angle": [
          -0.04253394427521901,
          -2.136929046668413,
          2.051861158117972
        ],
        "p": [
          -500000.0000000164,
          -500000.0000000151,
          -500000.0000000789
        ],
        "q": [
          -299999.9999999824,
          -300000.0000000439,
          -299999.9999999783
        ]
      },
      {
        "id": 5,
        "energized": 1,
        "u_pu": [
          0.949032157127342,
          0.949032157127342,
          0.9490321571273375
        ],
        "u": [
          5479.239713870821,
          5479.239713870821,
          5479.239713870795
        ],
        "u_angle": [
          -0.04253394427521901,
          -2.136929046668413,
          2.051861158117972
        ],
        "p": [
          -500000.0000000164,
          -500000.0000000151,
          -500000.0000000789
        ],
        "q": [
          -299999.9999999824,
          -300000.0000000439,
          -299999.9999999783
        ]
      },
      {
        "id": 6,
        "energized": 1,
        "u_pu": [
          0.951561259333002,
          0.9515612593330021,
          0.9515612593329975
        ],
        "u": [
          5493.84149226328,
          5493.84149226328,
          5493.841492263254
        ],
        "u_angle": [
          -0.04186953818982869,
          -2.136264640583023,
          2.052525564203363
        ],
        "p": [
          0,
          0,
          0
        ],
        "q": [
          0,
          0,
          0
        ]
      }
    ],
    "line": [
      {
        "id": 7,
        "energized": 1,
        "p_from": [
          2541627.503834988,
          2541627.50383497,
          2541627.503835248
        ],
        "q_from": [
          1541627.503835049,
          1541627.503835077,
          1541627.50383517
        ],
        "i_from": [
          529.844156027448,
          529.8441560274476,
          529.8441560274999
        ],
        "s_from": [
          2972622.702064821,
          2972622.70206482,
          2972622.702065106
        ],
        "p_to": [
          -2513554.020867344,
          -2513554.020867326,
          -2513554.020867599
        ],
        "q_to": [
          -1513554.020867405,
          -1513554.020867433,
          -1513554.02086752
        ],
        "i_to": [
          529.844156027448,
          529.8441560274476,
          529.8441560274999
        ],
        "s_to": [
          2934075.593760714,
          2934075.593760712,
          2934075.593760991
        ]
      },
      {
        "id": 8,
        "energized": 1,
        "p_from": [
          501114.570931692,
          501114.570931576,
          501114.5709317069
        ],
        "q_from": [
          301114.5709316818,
          301114.5709317281,
          301114.57093162
        ],
        "i_from": [
          105.5732414806529,
          105.5732414806393,
          105.5732414806499
        ],
        "s_from": [
          584624.4931812424,
          584624.4931811669,
          584624.4931812234
        ],
        "p_to": [
          -500000.0000000189,
          -499999.999999903,
          -500000.0000000337
        ],
        "q_to": [
          -300000.0000000087,
          -300000.0000000552,
          -299999.9999999469
        ],
        "i_to": [
          105.5732414806529,
          105.5732414806393,
          105.5732414806499
        ],
        "s_to": [
          583095.1894845506,
          583095.1894844753,
          583095.1894845316
        ]
      },
      {
        "id": 9,
        "energized": 1,
        "p_from": [
          1512439.449935764,
          1512439.449935752,
          1512439.449935886
        ],
        "q_from": [
          912439.4499357813,
          912439.4499358241,
          912439.449935819
        ],
        "i_from": [
          318.9741273460251,
          318.9741273460271,
          318.9741273460486
        ],
        "s_from": [
          1766357.50614679,
          1766357.506146803,
          1766357.506146914
        ],
        "p_to": [
          -1502265.000544148,
          -1502265.000544137,
          -1502265.000544269
        ],
        "q_to": [
          -902265.0005441656,
          -902265.0005442082,
          -902265.0005442012
        ],
        "i_to": [
          318.9741273460251,
          318.9741273460271,
          318.9741273460486
        ],
        "s_to": [
          1752393.295772063,
          1752393.295772075,
          1752393.295772185
        ]
      },
      {
        "id": 10,
        "energized": 1,
        "p_from": [
          501132.5002721119,
          501132.5002721106,
          501132.5002721746
        ],
        "q_from": [
          301132.5002720777,
          301132.5002721395,
          301132.500272074
        ],
        "i_from": [
          106.4189960531232,
          106.4189960531288,
          106.4189960531332
        ],
        "s_from": [
          584649.0960816506,
          584649.0960816813,
          584649.0960817025
        ],
        "p_to": [
          -500000.0000000164,
          -500000.0000000151,
          -500000.0000000789
        ],
        "q_to": [
          -299999.9999999824,
          -300000.0000000439,
          -299999.9999999783
        ],
        "i_to": [
          106.4189960531232,
          106.4189960531288,
          106.4189960531332
        ],
        "s_to": [
          583095.189484535,
          583095.1894845655,
          583095.1894845866
        ]
      },
      {
        "id": 11,
        "energized": 1,
        "p_from": [
          501132.5002721119,
          501132.5002721106,
          501132.5002721746
        ],
        "q_from": [
          301132.5002720777,
          301132.5002721395,
          301132.500272074
        ],
        "i_from": [
          106.4189960531232,
          106.4189960531288,
          106.4189960531332
        ],
        "s_from": [
          584649.0960816506,
          584649.0960816813,
          584649.0960817025
        ],
        "p_to": [
          -500000.0000000164,
          -500000.0000000151,
          -500000.0000000789
        ],
        "q_to": [
          -299999.9999999824,
          -300000.0000000439,
          -299999.9999999783
        ],
        "i_to": [
          106.4189960531232,
          106.4189960531288,
          106.4189960531332
        ],
        "s_to": [
          583095.189484535,
          583095.1894845655,
          583095.1894845866
        ]
      },
      {
        "id": 12,
        "energized": 1,
        "p_from": [
          0,
          0,
          0
        ],
        "q_from": [
          0,
          0,
          0
        ],
        "i_from": [
          0,
          0,
          0
        ],
        "s_from": [
          0,
          0,
          0
        ],
        "p_to": [
          0,
          0,
          0
        ],
        "q_to": [
          0,
          0,
          0
        ],
        "i_to": [
          0,
          0,
          0
        ],
        "s_to": [
          0,
          0,
          0
        ]
      }
    ],
    "source": [
      {
        "id": 13,
        "energized": 1,
        "p": [
          2541627.503834988,
          2541627.50383497,
          2541627.503835248
        ],
        "q": [
          1541627.50383505,
          1541627.503835077,
          1541627.50383517
        ],
        "i": [
          529.844156027448,
          529.8441560274476,
          529.8441560274999
        ],
        "s": [
          2972622.702064821,
          2972622.70206482,
          2972622.702065106
        ],
        "pf": [
          0.855011805591588,
          0.8550118055915825,
          0.8550118055915938
        ]
      }
    ],
    "sym_load": [
      {
        "id": 14,
        "energized": 1,
        "p": [
          500000,
          500000,
          500000
        ],
        "q": [
          299999.9999999999,
          299999.9999999999,
          299999.9999999999
        ],
        "i": [
          105.2970752400089,
          105.2970752400089,
          105.2970752400093
        ],
        "s": [
          583095.1894845299,
          583095.1894845299,
          583095.1894845299
        ],
        "pf": [
          0.8574929257125444,
          0.8574929257125444,
          0.8574929257125444
        ]
      },
      {
        "id": 15,
        "energized": 1,
        "p": [
          500000,
          500000,
          500000
        ],
        "q": [
          299999.9999999999,
          299999.9999999999,
          299999.9999999999
        ],
        "i": [
          105.5732414806492,
          105.5732414806491,
          105.5732414806496
        ],
        "s": [
          583095.1894845299,
          583095.1894845299,
          583095.1894845299
        ],
        "pf": [
          0.8574929257125444,
          0.8574929257125444,
          0.8574929257125444
        ]
      },
      {
        "id": 16,
        "energized": 1,
        "p": [
          500000,
          500000,
          500000
        ],
        "q": [
          299999.9999999999,
          299999.9999999999,
          299999.9999999999
        ],
        "i": [
          106.1361508710573,
          106.1361508710573,
          106.1361508710578
        ],
        "s": [
          583095.1894845299,
          583095.1894845299,
          583095.1894845299
        ],
        "pf": [
          0.8574929257125444,
          0.8574929257125444,
          0.8574929257125444
        ]
      },
      {
        "id": 17,
        "energized": 1,
        "p": [
          500000,
          500000,
          500000
        ],
        "q": [
          299999.9999999999,
          299999.9999999999,
          299999.9999999999
        ],
        "i": [
          106.4189960531223,
          106.4189960531223,
          106.4189960531229
        ],
        "s": [
          583095.1894845299,
          583095.1894845299,
          583095.1894845299
        ],
        "pf": [
          0.8574929257125444,
          0.8574929257125444,
          0.8574929257125444
        ]
      },
      {
        "id": 18,
        "energized": 1,
        "p": [
          500000,
          500000,
          500000
        ],
        "q": [
          299999.9999999999,
          299999.9999999999,
          299999.9999999999
        ],
        "i": [
          106.4189960531223,
          106.4189960531223,
          106.4189960531229
        ],
        "s": [
          583095.1894845299,
          583095.1894845299,
          583095.1894845299
        ],
        "pf": [
          0.8574929257125444,
          0.8574929257125444,
          0.8574929257125444
        ]
      }
    ]
  }
}
