tests/data/state_estimation/ill-conditioned-system/grid5-no-capacitance/sym_output.json
{
  "version": "1.0",
  "type": "sym_output",
  "is_batch": false,
  "attributes": {},
  "data": {
    "node": [
      {
        "id": 0,
        "energized": 1,
        "u_pu": 0.9717448976529297,
        "u": 9717.448976529296,
        "u_angle": -0.03667859182485689,
        "p": 7624882.511505189,
        "q": 4624882.511505141
      },
      {
        "id": 1,
        "energized": 1,
        "u_pu": 0.9591439187975328,
        "u": 9591.439187975328,
        "u_angle": -0.03989733227649962,
        "p": -1499999.99999972,
        "q": -899999.9999998241
      },
      {
        "id": 2,
        "energized": 1,
        "u_pu": 0.9566349196745321,
        "u": 9566.349196745321,
        "u_angle": -0.0405512472378978,
        "p": -1499999.999999944,
        "q": -899999.9999999215
      },
      {
        "id": 3,
        "energized": 1,
        "u_pu": 0.9515612593330015,
        "u": 9515.612593330015,
        "u_angle": -0.04186953818982894,
        "p": -1500000.000000063,
        "q": -900000.0000004504
      },
      {
        "id": 4,
        "energized": 1,
        "u_pu": 0.9490321571273418,
        "u": 9490.321571273418,
        "u_angle": -0.04253394427521929,
        "p": -1499999.999999939,
        "q": -899999.9999998971
      },
      {
        "id": 5,
        "energized": 1,
        "u_pu": 0.9490321571273418,
        "u": 9490.321571273418,
        "u_angle": -0.04253394427521929,
        "p": -1499999.999999939,
        "q": -899999.9999998971
      },
      {
        "id": 6,
        "energized": 1,
        "u_pu": 0.9515612593330015,
        "u": 9515.612593330015,
        "u_angle": -0.04186953818982899,
        "p": -5.177852922559154e-08,
        "q": 5.630665218686026e-08
      }
    ],
    "line": [
      {
        "id": 7,
        "energized": 1,
        "p_from": 7624882.511505189,
        "q_from": 4624882.511505141,
        "i_from": 529.844156027459,
        "s_from": 8917868.10619465,
        "p_to": -7540662.062602255,
        "q_to": -4540662.062602206,
        "i_to": 529.844156027459,
        "s_to": 8802226.781282324
      },
      {
        "id": 8,
        "energized": 1,
        "p_from": 1503343.712794963,
        "q_from": 903343.7127949407,
        "i_from": 105.5732414806438,
        "s_from": 1753873.479543577,
        "p_to": -1499999.999999944,
        "q_to": -899999.9999999215,
        "i_to": 105.5732414806438,
        "s_to": 1749285.568453502
      },
      {
        "id": 9,
        "energized": 1,
        "p_from": 4537318.349807466,
        "q_from": 2737318.349807554,
        "i_from": 318.9741273460405,
        "s_from": 5299072.518440628,
        "p_to": -4506795.001632616,
        "q_to": -2706795.001632704,
        "i_to": 318.9741273460405,
        "s_to": 5257179.887316442
      },
      {
        "id": 10,
        "energized": 1,
        "p_from": 1503397.500816225,
        "q_from": 903397.5008161829,
        "i_from": 106.4189960531159,
        "s_from": 1753947.288244831,
        "p_to": -1499999.999999939,
        "q_to": -899999.9999998971,
        "i_to": 106.4189960531159,
        "s_to": 1749285.568453485
      },
      {
        "id": 11,
        "energized": 1,
        "p_from": 1503397.500816225,
        "q_from": 903397.5008161829,
        "i_from": 106.4189960531159,
        "s_from": 1753947.288244831,
        "p_to": -1499999.999999939,
        "q_to": -899999.9999998971,
        "i_to": 106.4189960531159,
        "s_to": 1749285.568453485
      },
      {
        "id": 12,
        "energized": 1,
        "p_from": 5.177852922559155e-08,
        "q_from": -5.630665218686026e-08,
        "i_from": 4.641245714809236e-12,
        "s_from": 7.649480485142434e-08,
        "p_to": -5.177852922559154e-08,
        "q_to": 5.630665218686026e-08,
        "i_to": 4.641245714809236e-12,
        "s_to": 7.649480485142434e-08
      }
    ],
    "source": [
      {
        "id": 13,
        "energized": 1,
        "p": 7624882.51150519,
        "q": 4624882.51150514,
        "i": 529.8441560274591,
        "s": 8917868.10619465,
        "pf": 0.8550118055915955
      }
    ],
    "sym_load": [
      {
        "id": 14,
        "energized": 1,
        "p": 1500000,
        "q": 899999.9999999999,
        "i": 105.2970752400089,
        "s": 1749285.56845359,
        "pf": 0.8574929257125443
      },
      {
        "id": 15,
        "energized": 1,
        "p": 1500000,
        "q": 899999.9999999999,
        "i": 105.5732414806491,
        "s": 1749285.56845359,
        "pf": 0.8574929257125443
      },
      {
        "id": 16,
        "energized": 1,
        "p": 1500000,
        "q": 899999.9999999999,
        "i": 106.1361508710574,
        "s": 1749285.56845359,
        "pf": 0.8574929257125443
      },
      {
        "id": 17,
        "energized": 1,
        "p": 1500000,
        "q": 899999.9999999999,
        "i": 106.4189960531223,
        "s": 1749285.56845359,
        "pf": 0.8574929257125443
      },
      {
        "id": 18,
        "energized": 1,
        "p": 1500000,
        "q": 899999.9999999999,
        "i": 106.4189960531223,
        "s": 1749285.56845359,
        "pf": 0.8574929257125443
      }
    ]
  }
}
